Version 4
SHEET 1 1176 680
WIRE -208 -240 -208 -256
WIRE 528 -208 528 -256
WIRE -208 -144 -208 -160
WIRE 528 -80 528 -128
WIRE 528 48 528 0
WIRE 528 48 448 48
WIRE 672 48 528 48
WIRE 832 48 736 48
WIRE 928 48 832 48
WIRE 1088 48 1008 48
WIRE -368 80 -496 80
WIRE -160 80 -288 80
WIRE -64 80 -160 80
WIRE 352 80 16 80
WIRE 400 80 352 80
WIRE 352 112 352 80
WIRE 528 112 448 112
WIRE 672 112 528 112
WIRE 832 160 832 48
WIRE 1088 160 1088 48
WIRE -496 192 -496 80
WIRE -160 192 -160 80
WIRE 528 192 528 112
WIRE 672 192 672 112
WIRE 112 208 -64 208
WIRE 208 208 112 208
WIRE 352 208 352 176
WIRE 352 208 288 208
WIRE -64 240 -64 208
WIRE 112 240 112 208
WIRE -496 352 -496 272
WIRE -336 352 -496 352
WIRE -160 352 -160 256
WIRE -160 352 -336 352
WIRE -64 352 -64 320
WIRE 32 352 -64 352
WIRE 112 352 112 304
WIRE 112 352 32 352
WIRE 528 352 528 272
WIRE 608 352 528 352
WIRE 672 352 672 256
WIRE 672 352 608 352
WIRE 832 352 832 240
WIRE 976 352 832 352
WIRE 1088 352 1088 240
WIRE 1088 352 976 352
WIRE -336 384 -336 352
WIRE 32 384 32 352
WIRE 608 384 608 352
WIRE 976 384 976 352
FLAG 528 -256 VCC
FLAG 608 384 0
FLAG -208 -144 0
FLAG -208 -256 VCC
FLAG 976 384 0
FLAG -336 384 0
FLAG 32 384 0
SYMBOL voltage -496 176 R0
SYMATTR InstName Vb
SYMATTR Value 4
SYMBOL res -272 64 R90
WINDOW 0 0 56 VBottom 2
WINDOW 3 32 56 VTop 2
SYMATTR InstName Rb
SYMATTR Value 2.714k
SYMBOL transistor_encapsulado 416 80 R0
SYMATTR InstName BFP420
SYMBOL res 512 176 R0
SYMATTR InstName Re
SYMATTR Value 192
SYMBOL res 512 -224 R0
SYMATTR InstName Rc
SYMATTR Value 193
SYMBOL voltage -208 -256 R0
SYMATTR InstName V1
SYMATTR Value 10
SYMBOL ind -80 96 R270
WINDOW 0 32 56 VTop 2
WINDOW 3 5 56 VBottom 2
SYMATTR InstName L1
SYMATTR Value 1m
SYMBOL cap -176 192 R0
SYMATTR InstName C1
SYMATTR Value 1m
SYMBOL voltage -64 224 R0
WINDOW 123 37 47 Left 2
WINDOW 39 37 72 Left 2
SYMATTR Value2 AC 1
SYMATTR SpiceLine Rser=50
SYMATTR InstName V2
SYMATTR Value ""
SYMBOL cap 368 176 R180
WINDOW 0 24 56 Left 2
WINDOW 3 24 8 Left 2
SYMATTR InstName C2
SYMATTR Value 1m
SYMBOL cap 656 192 R0
SYMATTR InstName C3
SYMATTR Value 1m
SYMBOL cap 736 32 R90
WINDOW 0 0 32 VBottom 2
WINDOW 3 32 32 VTop 2
SYMATTR InstName C4
SYMATTR Value 1m
SYMBOL res 1072 144 R0
SYMATTR InstName Rload
SYMATTR Value 50
SYMBOL ind 512 -96 R0
SYMATTR InstName L2
SYMATTR Value 1m
SYMBOL ind 192 224 R270
WINDOW 0 32 56 VTop 2
WINDOW 3 5 56 VBottom 2
SYMATTR InstName L3
SYMATTR Value 0.182n
SYMBOL cap 96 240 R0
SYMATTR InstName C5
SYMATTR Value 2.017p
SYMBOL ind 912 64 R270
WINDOW 0 32 56 VTop 2
WINDOW 3 5 56 VBottom 2
SYMATTR InstName L4
SYMATTR Value 3.752n
SYMBOL ind 816 144 R0
SYMATTR InstName L5
SYMATTR Value 81.205n
TEXT -88 -296 Left 2 !.ac dec 401 2G 7G\n.net I(Rload) V2
