Version 4
SHEET 1 1732 820
WIRE -208 -240 -208 -256
WIRE 528 -208 528 -256
WIRE -208 -144 -208 -160
WIRE 528 -80 528 -128
WIRE 528 48 528 0
WIRE 528 48 448 48
WIRE 672 48 528 48
WIRE 816 48 736 48
WIRE 832 48 816 48
WIRE 976 48 912 48
WIRE 1184 48 976 48
WIRE -528 80 -656 80
WIRE -320 80 -448 80
WIRE -224 80 -320 80
WIRE 352 80 -144 80
WIRE 400 80 352 80
WIRE 352 112 352 80
WIRE 528 112 448 112
WIRE 672 112 528 112
WIRE 976 128 976 48
WIRE 1056 128 1008 128
WIRE 1184 160 1184 48
WIRE -656 192 -656 80
WIRE -320 192 -320 80
WIRE 528 192 528 112
WIRE 672 192 672 112
WIRE 96 208 -208 208
WIRE 160 208 96 208
WIRE 256 208 240 208
WIRE 352 208 352 176
WIRE 352 208 256 208
WIRE 1056 224 1056 128
WIRE 1056 224 1008 224
WIRE 1056 256 1056 224
WIRE -208 288 -208 208
WIRE 64 288 16 288
WIRE 96 288 96 208
WIRE -656 352 -656 272
WIRE -496 352 -656 352
WIRE -320 352 -320 256
WIRE -320 352 -496 352
WIRE 528 352 528 272
WIRE 608 352 528 352
WIRE 672 352 672 256
WIRE 672 352 608 352
WIRE 1184 352 1184 240
WIRE -496 384 -496 352
WIRE 16 384 16 288
WIRE 64 384 16 384
WIRE 608 384 608 352
WIRE -208 416 -208 368
WIRE 16 416 16 384
FLAG 528 -256 VCC
FLAG 608 384 0
FLAG -208 -144 0
FLAG -208 -256 VCC
FLAG -496 384 0
FLAG 912 80 0
FLAG 816 80 0
FLAG 1056 256 0
FLAG 1184 352 0
FLAG 160 240 0
FLAG 256 240 0
FLAG 16 416 0
FLAG -208 416 0
SYMBOL voltage -656 176 R0
SYMATTR InstName Vb
SYMATTR Value 4
SYMBOL res -432 64 R90
WINDOW 0 0 56 VBottom 2
WINDOW 3 32 56 VTop 2
SYMATTR InstName Rb
SYMATTR Value 2.714k
SYMBOL transistor_encapsulado 416 80 R0
SYMATTR InstName BFP420
SYMBOL res 512 176 R0
SYMATTR InstName Re
SYMATTR Value 192
SYMBOL res 512 -224 R0
SYMATTR InstName Rc
SYMATTR Value 193
SYMBOL voltage -208 -256 R0
SYMATTR InstName V1
SYMATTR Value 10
SYMBOL ind -240 96 R270
WINDOW 0 32 56 VTop 2
WINDOW 3 5 56 VBottom 2
SYMATTR InstName L1
SYMATTR Value 1m
SYMBOL cap -336 192 R0
SYMATTR InstName C1
SYMATTR Value 1m
SYMBOL voltage -208 272 R0
WINDOW 123 37 47 Left 2
WINDOW 39 37 72 Left 2
SYMATTR Value2 AC 1
SYMATTR SpiceLine Rser=50
SYMATTR InstName V2
SYMATTR Value ""
SYMBOL cap 368 176 R180
WINDOW 0 24 56 Left 2
WINDOW 3 24 8 Left 2
SYMATTR InstName C2
SYMATTR Value 1m
SYMBOL cap 656 192 R0
SYMATTR InstName C3
SYMATTR Value 1m
SYMBOL cap 736 32 R90
WINDOW 0 0 32 VBottom 2
WINDOW 3 32 32 VTop 2
SYMATTR InstName C4
SYMATTR Value 1m
SYMBOL res 1168 144 R0
SYMATTR InstName Rload
SYMATTR Value 50
SYMBOL ind 512 -96 R0
SYMATTR InstName L2
SYMATTR Value 1m
SYMBOL tline 992 176 R270
WINDOW 3 -6 92 Top 2
SYMATTR InstName T1
SYMATTR Value Td=47.143p Z0=50
SYMBOL tline 864 64 R0
WINDOW 3 2 36 Top 2
SYMATTR InstName T2
SYMATTR Value Td=70p Z0=50
SYMBOL tline 80 336 M270
WINDOW 3 -2 85 Top 2
SYMATTR InstName T3
SYMATTR Value Td=50.857p Z0=50
SYMBOL tline 208 224 M0
WINDOW 3 -8 40 Top 2
SYMATTR InstName T4
SYMATTR Value Td=3.142p Z0=50
TEXT -88 -296 Left 2 !.ac dec 401 2G 7G\n.net I(Rload) V2
